*SPEF "IEEE 1481-1998" 
*DESIGN "openMSP430" 
*DATE "Tue June 20 19:05:00 2023" 
*VENDOR "TAU 2015 Contest" 
*PROGRAM "Benchmark Parasitic Generator" 
*VERSION "0.6" 
*DESIGN FLOW "NETLIST TYPE VERILOG" 
*DIVIDER / 
*DELIMITER : 
*BUS_DELIMITER  
*T_UNIT 1 PS 
*C_UNIT 1 FF 
*R_UNIT 1 KOHM 
*L_UNIT 1 UH 
